/*--------------------------------*- C++ -*----------------------------------*\
|  controlDict for incompressible laminar jet test (icoFoam)                 |
\*---------------------------------------------------------------------------*/
FoamFile
{
    format      ascii;
    class       dictionary;
    location    "system";
    object      controlDict;
}

application     icoFoam;        // <-- this line defines the solver

startFrom       startTime;

startTime       0;

stopAt          endTime;

endTime         0.5;             // shorter runtime for initial test

deltaT          0.001;          // smaller timestep for stability

writeControl    timeStep;
writeInterval   10;            // write every 10 timesteps

purgeWrite      0;
writeFormat     ascii;
writePrecision  6;
writeCompression off;
timeFormat      general;
timePrecision   6;

runTimeModifiable true;

// ************************************************************************* //
